
**** 04/03/26 22:42:15 ******* PSpice Lite (March 2016) ******* ID# 10813 ****

 ** Profile: "SCHEMATIC1-try3"  [ d:\university\habib\sem 4\basic electronics\lab\lab 11\q_point-PSpiceFiles\SCHEMATIC1\try3.sim ] 


 ****     CIRCUIT DESCRIPTION


******************************************************************************




** Creating circuit file "try3.cir" 
** WARNING: THIS AUTOMATICALLY GENERATED FILE MAY BE OVERWRITTEN BY SUBSEQUENT SIMULATIONS

*Libraries: 
* Profile Libraries :
* Local Libraries :
* From [PSPICE NETLIST] section of C:\Users\Yousuf Lali\AppData\Roaming\SPB_Data\cdssetup\OrCAD_PSpice\17.2.0\PSpice.ini file:
.lib "nomd.lib" 

*Analysis directives: 
.DC LIN V_V4 0 15 0.1 
+ LIN V_V5 0 8 0.2 
.OPTIONS ADVCONV
.PROBE64 V(alias(*)) I(alias(*)) W(alias(*)) D(alias(*)) NOISE(alias(*)) 
.INC "..\SCHEMATIC1.net" 



**** INCLUDING SCHEMATIC1.net ****
* source Q_POINT
V_V4         N36568 0 20Vdc
R_Rc         N36622 N36568  1k TC=0,0 
R_R2         N36708 N37270  100k TC=0,0 
X_Q1         N36622 N36708 0 awb2n3904 PARAMS:                                 
+            
V_V5         N37270 0 0Vdc

**** RESUMING try3.cir ****
.END

**** 04/03/26 22:42:15 ******* PSpice Lite (March 2016) ******* ID# 10813 ****

 ** Profile: "SCHEMATIC1-try3"  [ d:\university\habib\sem 4\basic electronics\lab\lab 11\q_point-PSpiceFiles\SCHEMATIC1\try3.sim ] 


 ****     BJT MODEL PARAMETERS


******************************************************************************




               X_Q1.model4     
               NPN             
       LEVEL    1            
          IS  172.800000E-18 
          EG    1.206        
          BF  254.395        
          NF     .85         
         VAF   10            
         IKF     .016374     
         ISE    9.974460E-15 
          NE    1.20863      
          BR     .1          
          NR     .891964     
         VAR    7.74046      
         IKR     .163741     
         ISC    9.974460E-15 
          NC    2.84343      
         ISS    0            
          RB   28.3394       
         RBM     .01         
         IRB     .01         
          RE    1.339110E-03 
          RC    2.08353      
         CJE    4.566140E-12 
         VJE     .4          
         MJE     .245712     
         CJC    3.724850E-12 
         VJC     .4          
         MJC     .236002     
        XCJC     .8          
         CJS    0            
         VJS     .75         
         MJS     .5          
          FC     .519152     
          TF  481.412000E-12 
         XTF     .9628       
         VTF    9.52193      
         ITF     .011333     
          TR    1.303990E-06 
         XTB    1.20888      
         XTI    1.34879      
          KF    0            
          AF    1            
          CN    2.42         
           D     .87         



          JOB CONCLUDED

**** 04/03/26 22:42:15 ******* PSpice Lite (March 2016) ******* ID# 10813 ****

 ** Profile: "SCHEMATIC1-try3"  [ d:\university\habib\sem 4\basic electronics\lab\lab 11\q_point-PSpiceFiles\SCHEMATIC1\try3.sim ] 


 ****     JOB STATISTICS SUMMARY


******************************************************************************



  Total job time (using Solver 1)   =         .95
