
**** 03/14/26 02:22:33 ******* PSpice Lite (March 2016) ******* ID# 10813 ****

 ** Profile: "SCHEMATIC1-Test1"  [ D:\University\Habib\Sem 4\Basic Electronics\Lab\CEP\Project-PSpiceFiles\SCHEMATIC1\Test1.sim ] 


 ****     CIRCUIT DESCRIPTION


******************************************************************************




** Creating circuit file "Test1.cir" 
** WARNING: THIS AUTOMATICALLY GENERATED FILE MAY BE OVERWRITTEN BY SUBSEQUENT SIMULATIONS

*Libraries: 
* Profile Libraries :
* Local Libraries :
* From [PSPICE NETLIST] section of C:\Users\Yousuf Lali\AppData\Roaming\SPB_Data\cdssetup\OrCAD_PSpice\17.2.0\PSpice.ini file:
.lib "nomd.lib" 

*Analysis directives: 
.TRAN  0 5ms 0 1u 
.OPTIONS ADVCONV
.PROBE64 V(alias(*)) I(alias(*)) W(alias(*)) D(alias(*)) NOISE(alias(*)) 
.INC "..\SCHEMATIC1.net" 



**** INCLUDING SCHEMATIC1.net ****
* source PROJECT
X_Q1         N00266 N00240 N000510 awb2n3904 PARAMS:                           
+                  
C_C2         N00240 N00459 1u TC=0
C_C4         N00266 0.1u TC=0
----------------------------$
ERROR(ORPSIM-16144): Value may not be 0
R_R1         N00240 N00547  110k TC=0,0 
R_R2         0 N00240  10k TC=0,0 
R_Rc         N00266 N00547  4.2k TC=0,0 
R_RE         0 N000510  390 TC=0,0 
V_V3         N00459 0  
+SIN 0 10mV 1k 0 0 0
V_V4         N00547 0 12Vdc

**** RESUMING Test1.cir ****
.END
